MODEL 1
REMARK VINA RESULT:      -5.3      0.000      0.000
REMARK  Name = 
REMARK  4 active torsions:
REMARK  status: ('A' for Active; 'I' for Inactive)
REMARK    1  A    between atoms: C_1  and  C_2
REMARK    2  A    between atoms: C_2  and  O_3
REMARK    3  A    between atoms: N_4  and  C_5
REMARK    4  A    between atoms: C_8  and  O_9
REMARK                            x       y       z     vdW  Elec       q    Type
REMARK                         _______ _______ _______ _____ _____    ______ ____
ROOT
ATOM      1  C   UNL     1       5.086  21.842  -4.026  0.00  0.00    +0.068 A 
ATOM      2  C   UNL     1       4.341  21.415  -5.130  0.00  0.00    +0.031 A 
ATOM      3  C   UNL     1       4.384  20.081  -5.535  0.00  0.00    +0.047 A 
ATOM      4  C   UNL     1       5.156  19.170  -4.823  0.00  0.00    +0.117 A 
ATOM      5  C   UNL     1       5.885  19.571  -3.708  0.00  0.00    +0.047 A 
ATOM      6  C   UNL     1       5.843  20.909  -3.310  0.00  0.00    +0.031 A 
ENDROOT
BRANCH   1   9
ATOM      7  C   UNL     1       6.920  23.778  -5.142  0.00  0.00    +0.109 C 
ATOM      8  C   UNL     1       5.864  24.028  -4.104  0.00  0.00    +0.184 C 
ATOM      9  N   UNL     1       5.038  23.174  -3.601  0.00  0.00    -0.218 NA
BRANCH   8  10
ATOM     10  O   UNL     1       5.777  25.307  -3.693  0.00  0.00    -0.496 OA
ATOM     11  H   UNL     1       6.271  25.487  -2.880  0.00  0.00    +0.293 HD
ENDBRANCH   8  10
ENDBRANCH   1   9
BRANCH   4  12
ATOM     12  O   UNL     1       5.165  17.875  -5.250  0.00  0.00    -0.507 OA
ATOM     13  H   UNL     1       5.543  17.846  -6.143  0.00  0.00    +0.292 HD
ENDBRANCH   4  12
TORSDOF 3
ENDMDL
MODEL 2
REMARK VINA RESULT:      -5.3      1.762      5.037
REMARK  Name = 
REMARK  4 active torsions:
REMARK  status: ('A' for Active; 'I' for Inactive)
REMARK    1  A    between atoms: C_1  and  C_2
REMARK    2  A    between atoms: C_2  and  O_3
REMARK    3  A    between atoms: N_4  and  C_5
REMARK    4  A    between atoms: C_8  and  O_9
REMARK                            x       y       z     vdW  Elec       q    Type
REMARK                         _______ _______ _______ _____ _____    ______ ____
ROOT
ATOM      1  C   UNL     1       5.518  23.445  -4.050  0.00  0.00    +0.068 A 
ATOM      2  C   UNL     1       5.301  23.875  -2.737  0.00  0.00    +0.031 A 
ATOM      3  C   UNL     1       6.186  24.769  -2.133  0.00  0.00    +0.047 A 
ATOM      4  C   UNL     1       7.277  25.248  -2.851  0.00  0.00    +0.117 A 
ATOM      5  C   UNL     1       7.495  24.850  -4.166  0.00  0.00    +0.047 A 
ATOM      6  C   UNL     1       6.609  23.951  -4.764  0.00  0.00    +0.031 A 
ENDROOT
BRANCH   1   9
ATOM      7  C   UNL     1       5.815  20.596  -3.667  0.00  0.00    +0.109 C 
ATOM      8  C   UNL     1       4.773  21.292  -4.494  0.00  0.00    +0.184 C 
ATOM      9  N   UNL     1       4.628  22.562  -4.670  0.00  0.00    -0.218 NA
BRANCH   8  10
ATOM     10  O   UNL     1       3.886  20.469  -5.085  0.00  0.00    -0.496 OA
ATOM     11  H   UNL     1       3.211  20.129  -4.480  0.00  0.00    +0.293 HD
ENDBRANCH   8  10
ENDBRANCH   1   9
BRANCH   4  12
ATOM     12  O   UNL     1       8.113  26.124  -2.226  0.00  0.00    -0.507 OA
ATOM     13  H   UNL     1       7.688  26.427  -1.407  0.00  0.00    +0.292 HD
ENDBRANCH   4  12
TORSDOF 3
ENDMDL
MODEL 3
REMARK VINA RESULT:      -5.2      2.435      2.875
REMARK  Name = 
REMARK  4 active torsions:
REMARK  status: ('A' for Active; 'I' for Inactive)
REMARK    1  A    between atoms: C_1  and  C_2
REMARK    2  A    between atoms: C_2  and  O_3
REMARK    3  A    between atoms: N_4  and  C_5
REMARK    4  A    between atoms: C_8  and  O_9
REMARK                            x       y       z     vdW  Elec       q    Type
REMARK                         _______ _______ _______ _____ _____    ______ ____
ROOT
ATOM      1  C   UNL     1       6.139  24.019  -4.336  0.00  0.00    +0.068 A 
ATOM      2  C   UNL     1       5.695  23.649  -5.609  0.00  0.00    +0.031 A 
ATOM      3  C   UNL     1       4.728  22.653  -5.757  0.00  0.00    +0.047 A 
ATOM      4  C   UNL     1       4.192  22.043  -4.629  0.00  0.00    +0.117 A 
ATOM      5  C   UNL     1       4.604  22.414  -3.353  0.00  0.00    +0.047 A 
ATOM      6  C   UNL     1       5.576  23.408  -3.211  0.00  0.00    +0.031 A 
ENDROOT
BRANCH   1   9
ATOM      7  C   UNL     1       8.945  23.407  -4.663  0.00  0.00    +0.109 C 
ATOM      8  C   UNL     1       8.345  24.740  -4.322  0.00  0.00    +0.184 C 
ATOM      9  N   UNL     1       7.095  25.027  -4.176  0.00  0.00    -0.218 NA
BRANCH   8  10
ATOM     10  O   UNL     1       9.240  25.738  -4.185  0.00  0.00    -0.496 OA
ATOM     11  H   UNL     1       8.838  26.619  -4.171  0.00  0.00    +0.293 HD
ENDBRANCH   8  10
ENDBRANCH   1   9
BRANCH   4  12
ATOM     12  O   UNL     1       3.246  21.079  -4.817  0.00  0.00    -0.507 OA
ATOM     13  H   UNL     1       3.688  20.261  -5.096  0.00  0.00    +0.292 HD
ENDBRANCH   4  12
TORSDOF 3
ENDMDL
MODEL 4
REMARK VINA RESULT:      -5.2      1.761      4.951
REMARK  Name = 
REMARK  4 active torsions:
REMARK  status: ('A' for Active; 'I' for Inactive)
REMARK    1  A    between atoms: C_1  and  C_2
REMARK    2  A    between atoms: C_2  and  O_3
REMARK    3  A    between atoms: N_4  and  C_5
REMARK    4  A    between atoms: C_8  and  O_9
REMARK                            x       y       z     vdW  Elec       q    Type
REMARK                         _______ _______ _______ _____ _____    ______ ____
ROOT
ATOM      1  C   UNL     1       5.475  23.418  -4.026  0.00  0.00    +0.068 A 
ATOM      2  C   UNL     1       6.582  23.934  -4.707  0.00  0.00    +0.031 A 
ATOM      3  C   UNL     1       7.443  24.832  -4.076  0.00  0.00    +0.047 A 
ATOM      4  C   UNL     1       7.208  25.196  -2.754  0.00  0.00    +0.117 A 
ATOM      5  C   UNL     1       6.126  24.675  -2.053  0.00  0.00    +0.047 A 
ATOM      6  C   UNL     1       5.263  23.781  -2.692  0.00  0.00    +0.031 A 
ENDROOT
BRANCH   1   9
ATOM      7  C   UNL     1       5.882  20.579  -3.662  0.00  0.00    +0.109 C 
ATOM      8  C   UNL     1       4.809  21.240  -4.477  0.00  0.00    +0.184 C 
ATOM      9  N   UNL     1       4.614  22.505  -4.644  0.00  0.00    -0.218 NA
BRANCH   8  10
ATOM     10  O   UNL     1       3.948  20.388  -5.066  0.00  0.00    -0.496 OA
ATOM     11  H   UNL     1       3.223  20.108  -4.488  0.00  0.00    +0.293 HD
ENDBRANCH   8  10
ENDBRANCH   1   9
BRANCH   4  12
ATOM     12  O   UNL     1       8.077  26.071  -2.173  0.00  0.00    -0.507 OA
ATOM     13  H   UNL     1       8.594  26.504  -2.871  0.00  0.00    +0.292 HD
ENDBRANCH   4  12
TORSDOF 3
ENDMDL
MODEL 5
REMARK VINA RESULT:      -5.2      2.885      3.627
REMARK  Name = 
REMARK  4 active torsions:
REMARK  status: ('A' for Active; 'I' for Inactive)
REMARK    1  A    between atoms: C_1  and  C_2
REMARK    2  A    between atoms: C_2  and  O_3
REMARK    3  A    between atoms: N_4  and  C_5
REMARK    4  A    between atoms: C_8  and  O_9
REMARK                            x       y       z     vdW  Elec       q    Type
REMARK                         _______ _______ _______ _____ _____    ______ ____
ROOT
ATOM      1  C   UNL     1       7.156  23.343  -4.958  0.00  0.00    +0.068 A 
ATOM      2  C   UNL     1       6.625  23.145  -3.680  0.00  0.00    +0.031 A 
ATOM      3  C   UNL     1       5.296  22.748  -3.523  0.00  0.00    +0.047 A 
ATOM      4  C   UNL     1       4.506  22.530  -4.646  0.00  0.00    +0.117 A 
ATOM      5  C   UNL     1       5.024  22.700  -5.926  0.00  0.00    +0.047 A 
ATOM      6  C   UNL     1       6.353  23.102  -6.078  0.00  0.00    +0.031 A 
ENDROOT
BRANCH   1   9
ATOM      7  C   UNL     1       7.927  26.101  -4.565  0.00  0.00    +0.109 C 
ATOM      8  C   UNL     1       8.822  24.960  -4.953  0.00  0.00    +0.184 C 
ATOM      9  N   UNL     1       8.491  23.725  -5.128  0.00  0.00    -0.218 NA
BRANCH   8  10
ATOM     10  O   UNL     1      10.119  25.291  -5.099  0.00  0.00    -0.496 OA
ATOM     11  H   UNL     1      10.361  25.517  -6.010  0.00  0.00    +0.293 HD
ENDBRANCH   8  10
ENDBRANCH   1   9
BRANCH   4  12
ATOM     12  O   UNL     1       3.216  22.138  -4.448  0.00  0.00    -0.507 OA
ATOM     13  H   UNL     1       3.210  21.402  -3.814  0.00  0.00    +0.292 HD
ENDBRANCH   4  12
TORSDOF 3
ENDMDL
MODEL 6
REMARK VINA RESULT:      -5.1      1.290      4.707
REMARK  Name = 
REMARK  4 active torsions:
REMARK  status: ('A' for Active; 'I' for Inactive)
REMARK    1  A    between atoms: C_1  and  C_2
REMARK    2  A    between atoms: C_2  and  O_3
REMARK    3  A    between atoms: N_4  and  C_5
REMARK    4  A    between atoms: C_8  and  O_9
REMARK                            x       y       z     vdW  Elec       q    Type
REMARK                         _______ _______ _______ _____ _____    ______ ____
ROOT
ATOM      1  C   UNL     1       6.008  21.555  -3.804  0.00  0.00    +0.068 A 
ATOM      2  C   UNL     1       6.885  22.236  -4.654  0.00  0.00    +0.031 A 
ATOM      3  C   UNL     1       6.924  23.631  -4.656  0.00  0.00    +0.047 A 
ATOM      4  C   UNL     1       6.099  24.343  -3.792  0.00  0.00    +0.117 A 
ATOM      5  C   UNL     1       5.237  23.682  -2.923  0.00  0.00    +0.047 A 
ATOM      6  C   UNL     1       5.198  22.285  -2.929  0.00  0.00    +0.031 A 
ENDROOT
BRANCH   1   9
ATOM      7  C   UNL     1       4.627  20.117  -5.897  0.00  0.00    +0.109 C 
ATOM      8  C   UNL     1       5.350  19.526  -4.721  0.00  0.00    +0.184 C 
ATOM      9  N   UNL     1       5.973  20.156  -3.783  0.00  0.00    -0.218 NA
BRANCH   8  10
ATOM     10  O   UNL     1       5.355  18.179  -4.686  0.00  0.00    -0.496 OA
ATOM     11  H   UNL     1       4.472  17.787  -4.762  0.00  0.00    +0.293 HD
ENDBRANCH   8  10
ENDBRANCH   1   9
BRANCH   4  12
ATOM     12  O   UNL     1       6.173  25.704  -3.821  0.00  0.00    -0.507 OA
ATOM     13  H   UNL     1       6.929  25.984  -3.281  0.00  0.00    +0.292 HD
ENDBRANCH   4  12
TORSDOF 3
ENDMDL
MODEL 7
REMARK VINA RESULT:      -5.1      1.246      1.878
REMARK  Name = 
REMARK  4 active torsions:
REMARK  status: ('A' for Active; 'I' for Inactive)
REMARK    1  A    between atoms: C_1  and  C_2
REMARK    2  A    between atoms: C_2  and  O_3
REMARK    3  A    between atoms: N_4  and  C_5
REMARK    4  A    between atoms: C_8  and  O_9
REMARK                            x       y       z     vdW  Elec       q    Type
REMARK                         _______ _______ _______ _____ _____    ______ ____
ROOT
ATOM      1  C   UNL     1       5.666  22.609  -4.848  0.00  0.00    +0.068 A 
ATOM      2  C   UNL     1       5.724  21.971  -3.605  0.00  0.00    +0.031 A 
ATOM      3  C   UNL     1       5.586  20.586  -3.515  0.00  0.00    +0.047 A 
ATOM      4  C   UNL     1       5.410  19.836  -4.673  0.00  0.00    +0.117 A 
ATOM      5  C   UNL     1       5.373  20.450  -5.921  0.00  0.00    +0.047 A 
ATOM      6  C   UNL     1       5.507  21.838  -6.004  0.00  0.00    +0.031 A 
ENDROOT
BRANCH   1   9
ATOM      7  C   UNL     1       8.312  23.773  -4.804  0.00  0.00    +0.109 C 
ATOM      8  C   UNL     1       7.005  24.503  -4.926  0.00  0.00    +0.184 C 
ATOM      9  N   UNL     1       5.819  23.995  -4.950  0.00  0.00    -0.218 NA
BRANCH   8  10
ATOM     10  O   UNL     1       7.121  25.839  -5.050  0.00  0.00    -0.496 OA
ATOM     11  H   UNL     1       7.503  26.269  -4.271  0.00  0.00    +0.293 HD
ENDBRANCH   8  10
ENDBRANCH   1   9
BRANCH   4  12
ATOM     12  O   UNL     1       5.286  18.485  -4.542  0.00  0.00    -0.507 OA
ATOM     13  H   UNL     1       4.601  18.300  -3.879  0.00  0.00    +0.292 HD
ENDBRANCH   4  12
TORSDOF 3
ENDMDL
MODEL 8
REMARK VINA RESULT:      -5.0      2.832      4.858
REMARK  Name = 
REMARK  4 active torsions:
REMARK  status: ('A' for Active; 'I' for Inactive)
REMARK    1  A    between atoms: C_1  and  C_2
REMARK    2  A    between atoms: C_2  and  O_3
REMARK    3  A    between atoms: N_4  and  C_5
REMARK    4  A    between atoms: C_8  and  O_9
REMARK                            x       y       z     vdW  Elec       q    Type
REMARK                         _______ _______ _______ _____ _____    ______ ____
ROOT
ATOM      1  C   UNL     1       6.650  23.469  -4.843  0.00  0.00    +0.068 A 
ATOM      2  C   UNL     1       6.764  24.856  -4.973  0.00  0.00    +0.031 A 
ATOM      3  C   UNL     1       8.021  25.461  -5.004  0.00  0.00    +0.047 A 
ATOM      4  C   UNL     1       9.165  24.674  -4.926  0.00  0.00    +0.117 A 
ATOM      5  C   UNL     1       9.072  23.289  -4.819  0.00  0.00    +0.047 A 
ATOM      6  C   UNL     1       7.810  22.690  -4.783  0.00  0.00    +0.031 A 
ENDROOT
BRANCH   1   9
ATOM      7  C   UNL     1       5.172  23.274  -2.366  0.00  0.00    +0.109 C 
ATOM      8  C   UNL     1       4.747  22.768  -3.714  0.00  0.00    +0.184 C 
ATOM      9  N   UNL     1       5.395  22.851  -4.826  0.00  0.00    -0.218 NA
BRANCH   8  10
ATOM     10  O   UNL     1       3.530  22.190  -3.735  0.00  0.00    -0.496 OA
ATOM     11  H   UNL     1       3.546  21.247  -3.513  0.00  0.00    +0.293 HD
ENDBRANCH   8  10
ENDBRANCH   1   9
BRANCH   4  12
ATOM     12  O   UNL     1      10.373  25.303  -4.966  0.00  0.00    -0.507 OA
ATOM     13  H   UNL     1      10.605  25.468  -5.894  0.00  0.00    +0.292 HD
ENDBRANCH   4  12
TORSDOF 3
ENDMDL
MODEL 9
REMARK VINA RESULT:      -4.9      1.848      4.817
REMARK  Name = 
REMARK  4 active torsions:
REMARK  status: ('A' for Active; 'I' for Inactive)
REMARK    1  A    between atoms: C_1  and  C_2
REMARK    2  A    between atoms: C_2  and  O_3
REMARK    3  A    between atoms: N_4  and  C_5
REMARK    4  A    between atoms: C_8  and  O_9
REMARK                            x       y       z     vdW  Elec       q    Type
REMARK                         _______ _______ _______ _____ _____    ______ ____
ROOT
ATOM      1  C   UNL     1       5.686  23.545  -4.880  0.00  0.00    +0.068 A 
ATOM      2  C   UNL     1       6.601  23.704  -5.925  0.00  0.00    +0.031 A 
ATOM      3  C   UNL     1       7.773  24.435  -5.731  0.00  0.00    +0.047 A 
ATOM      4  C   UNL     1       8.040  24.989  -4.484  0.00  0.00    +0.117 A 
ATOM      5  C   UNL     1       7.153  24.821  -3.425  0.00  0.00    +0.047 A 
ATOM      6  C   UNL     1       5.978  24.093  -3.626  0.00  0.00    +0.031 A 
ENDROOT
BRANCH   1   9
ATOM      7  C   UNL     1       5.649  20.733  -4.208  0.00  0.00    +0.109 C 
ATOM      8  C   UNL     1       4.512  21.546  -4.759  0.00  0.00    +0.184 C 
ATOM      9  N   UNL     1       4.515  22.801  -5.059  0.00  0.00    -0.218 NA
BRANCH   8  10
ATOM     10  O   UNL     1       3.363  20.862  -4.920  0.00  0.00    -0.496 OA
ATOM     11  H   UNL     1       3.476  19.901  -4.886  0.00  0.00    +0.293 HD
ENDBRANCH   8  10
ENDBRANCH   1   9
BRANCH   4  12
ATOM     12  O   UNL     1       9.199  25.690  -4.335  0.00  0.00    -0.507 OA
ATOM     13  H   UNL     1       8.979  26.623  -4.184  0.00  0.00    +0.292 HD
ENDBRANCH   4  12
TORSDOF 3
ENDMDL
