@<TRIPOS>MOLECULE
ZINC000002033385
43    43    1     0     0
SMALL
USER_CHARGES
@<TRIPOS>ATOM
1      N1     -0.0178    1.4648    0.0101 N.4      1 ZINC000002033385   -0.6100
2      H2      0.9288    1.8140    0.0029 H        1 ZINC000002033385    0.4100
3      H3     -0.5059    1.7990   -0.8073 H        1 ZINC000002033385    0.4300
4      H4     -0.4901    1.7902    0.8402 H        1 ZINC000002033385    0.4300
5      C5      0.0021   -0.0041    0.0020 C.3      1 ZINC000002033385   -0.0500
6      H6      0.5123   -0.3556   -0.8948 H        1 ZINC000002033385    0.1300
7      C7      0.7421   -0.5109    1.2415 C.3      1 ZINC000002033385   -0.1300
8      C8      2.2100   -0.0858    1.1685 C.3      1 ZINC000002033385   -0.1300
9      C9      2.9500   -0.5926    2.4081 C.3      1 ZINC000002033385   -0.0700
10     C10     4.3959   -0.1739    2.3361 C.ar     1 ZINC000002033385   -0.1400
11     C11     5.3248   -1.0022    1.7334 C.ar     1 ZINC000002033385   -0.0700
12     C12     6.6496   -0.6190    1.6607 C.ar     1 ZINC000002033385   -0.1900
13     C13     7.0506    0.5949    2.2041 C.ar     1 ZINC000002033385    0.2100
14     N14     8.3908    0.9828    2.1378 N.pl3    1 ZINC000002033385   -0.6200
15     C15     9.3752    0.1093    1.4943 C.3      1 ZINC000002033385    0.1100
16     C16     9.4677    0.4541    0.0066 C.3      1 ZINC000002033385   -0.0600
17     Cl17   10.6792   -0.6210   -0.7854 Cl       1 ZINC000002033385   -0.1700
18     C18     8.8121    2.2631    2.7118 C.3      1 ZINC000002033385    0.1100
19     C19     9.2090    2.0600    4.1754 C.3      1 ZINC000002033385   -0.0600
20     Cl20    9.7274    3.6357    4.8819 Cl       1 ZINC000002033385   -0.1700
21     C21     6.1159    1.4220    2.8139 C.ar     1 ZINC000002033385   -0.1900
22     C22     4.7917    1.0352    2.8781 C.ar     1 ZINC000002033385   -0.0700
23     C23    -1.4117   -0.5257    0.0127 C.2      1 ZINC000002033385    0.4900
24     O24    -2.3491    0.2539    0.0259 O.co2    1 ZINC000002033385   -0.6800
25     O25    -1.6182   -1.7273    0.0082 O.co2    1 ZINC000002033385   -0.6400
26     H26     0.2852   -0.0874    2.1360 H        1 ZINC000002033385    0.0800
27     H27     0.6803   -1.5984    1.2822 H        1 ZINC000002033385    0.1100
28     H28     2.6669   -0.5093    0.2741 H        1 ZINC000002033385    0.0700
29     H29     2.2717    1.0017    1.1279 H        1 ZINC000002033385    0.0500
30     H30     2.4931   -0.1691    3.3025 H        1 ZINC000002033385    0.0700
31     H31     2.8883   -1.6801    2.4487 H        1 ZINC000002033385    0.0800
32     H32     5.0131   -1.9480    1.3153 H        1 ZINC000002033385    0.1200
33     H33     7.3738   -1.2643    1.1859 H        1 ZINC000002033385    0.1200
34     H34    10.3493    0.2533    1.9619 H        1 ZINC000002033385    0.0900
35     H35     9.0678   -0.9303    1.6079 H        1 ZINC000002033385    0.0900
36     H36     8.4936    0.3101   -0.4610 H        1 ZINC000002033385    0.1000
37     H37     9.7751    1.4936   -0.1071 H        1 ZINC000002033385    0.0900
38     H38     9.6657    2.6482    2.1540 H        1 ZINC000002033385    0.0900
39     H39     7.9891    2.9755    2.6541 H        1 ZINC000002033385    0.0900
40     H40     8.3554    1.6750    4.7333 H        1 ZINC000002033385    0.1000
41     H41    10.0320    1.3476    4.2331 H        1 ZINC000002033385    0.0900
42     H42     6.4243    2.3666    3.2370 H        1 ZINC000002033385    0.1200
43     H43     4.0645    1.6776    3.3523 H        1 ZINC000002033385    0.1200
@<TRIPOS>BOND
1     1     2     1
2     1     3     1
3     1     4     1
4     1     5     1
5     5     6     1
6     5     7     1
7     5     23    1
8     7     8     1
9     7     26    1
10    7     27    1
11    8     9     1
12    8     28    1
13    8     29    1
14    9     10    1
15    9     30    1
16    9     31    1
17    10    22    ar
18    10    11    ar
19    11    12    ar
20    11    32    1
21    12    13    ar
22    12    33    1
23    13    14    1
24    13    21    ar
25    14    15    1
26    14    18    1
27    15    16    1
28    15    34    1
29    15    35    1
30    16    17    1
31    16    36    1
32    16    37    1
33    18    19    1
34    18    38    1
35    18    39    1
36    19    20    1
37    19    40    1
38    19    41    1
39    21    22    ar
40    21    42    1
41    22    43    1
42    23    24    ar
43    23    25    ar
@<TRIPOS>SUBSTRUCTURE
1   ZINC000002033385 1     RESIDUE    1   A     ZIN   1
